<?xml version="1.0" encoding="UTF-8"?>

<!-- generated on 2024-01-02 09:43:18 by Eclipse SUMO GUI Version 1.18.0
<configuration xmlns:xsi="http://www.w3.org/2001/XMLSchema-instance" xsi:noNamespaceSchemaLocation="http://sumo.dlr.de/xsd/sumoConfiguration.xsd">

    <input>
        <net-file value="cfg/freeway.net.xml"/>
        <route-files value="cfg/freeway.rou.xml"/>
        <additional-files value="cfg/parkingarea.add.xml,cfg/ detectorE1.add.xml,cfg/ detectorE2.add.xml,cfg/ detectorE3.add.xml,cfg/ edgedata.add.xml"/>
    </input>

    <time>
        <begin value="0"/>
        <end value="81600"/>
        <step-length value="0.01"/>
    </time>

    <processing>
        <collision.action value="remove"/>
        <collision.stoptime value="10000"/>
        <lanechange.duration value="2"/>
    </processing>

    <traci_server>
        <remote-port value="50340"/>
    </traci_server>

    <gui_only>
        <gui-settings-file value="cfg/freeway.gui.xml"/>
        <start value="true"/>
    </gui_only>

</configuration>
-->

<e3Detector xmlns:xsi="http://www.w3.org/2001/XMLSchema-instance" xsi:noNamespaceSchemaLocation="http://sumo.dlr.de/xsd/det_e3_file.xsd">
   <interval begin="0.00" end="60.00" id="00" meanTravelTime="-1.00" meanOverlapTravelTime="-1.00" meanSpeed="-1.00" meanHaltsPerVehicle="-1.00" meanTimeLoss="-1.00" vehicleSum="0" meanSpeedWithin="-1.00" meanHaltsPerVehicleWithin="-1.00" meanDurationWithin="-1.00" vehicleSumWithin="0" meanIntervalSpeedWithin="-1.00" meanIntervalHaltsPerVehicleWithin="-1.00" meanIntervalDurationWithin="-1.00" meanTimeLossWithin="-1.00"/>
   <interval begin="60.00" end="120.00" id="00" meanTravelTime="-1.00" meanOverlapTravelTime="-1.00" meanSpeed="-1.00" meanHaltsPerVehicle="-1.00" meanTimeLoss="-1.00" vehicleSum="0" meanSpeedWithin="-1.00" meanHaltsPerVehicleWithin="-1.00" meanDurationWithin="-1.00" vehicleSumWithin="0" meanIntervalSpeedWithin="-1.00" meanIntervalHaltsPerVehicleWithin="-1.00" meanIntervalDurationWithin="-1.00" meanTimeLossWithin="-1.00"/>
   <interval begin="120.00" end="180.00" id="00" meanTravelTime="7.50" meanOverlapTravelTime="7.62" meanSpeed="33.35" meanHaltsPerVehicle="0.00" meanTimeLoss="-0.55" vehicleSum="39" meanSpeedWithin="32.92" meanHaltsPerVehicleWithin="0.00" meanDurationWithin="3.09" vehicleSumWithin="10" meanIntervalSpeedWithin="32.92" meanIntervalHaltsPerVehicleWithin="0.00" meanIntervalDurationWithin="3.09" meanTimeLossWithin="-0.14"/>
   <interval begin="180.00" end="240.00" id="00" meanTravelTime="7.51" meanOverlapTravelTime="7.63" meanSpeed="33.30" meanHaltsPerVehicle="0.00" meanTimeLoss="-0.55" vehicleSum="80" meanSpeedWithin="33.35" meanHaltsPerVehicleWithin="0.00" meanDurationWithin="2.92" vehicleSumWithin="10" meanIntervalSpeedWithin="33.35" meanIntervalHaltsPerVehicleWithin="0.00" meanIntervalDurationWithin="2.92" meanTimeLossWithin="-0.21"/>
   <interval begin="240.00" end="261.59" id="00" meanTravelTime="7.50" meanOverlapTravelTime="7.62" meanSpeed="33.34" meanHaltsPerVehicle="0.00" meanTimeLoss="-0.53" vehicleSum="21" meanSpeedWithin="32.19" meanHaltsPerVehicleWithin="0.00" meanDurationWithin="5.25" vehicleSumWithin="7" meanIntervalSpeedWithin="32.19" meanIntervalHaltsPerVehicleWithin="0.00" meanIntervalDurationWithin="5.25" meanTimeLossWithin="-0.42"/>
</e3Detector>
